24
water with unit cell: ABC [angstrom] 9.84 4.92 4.92
O -1.62952 0.502285 3.96505
H 2.42786 0.724159 4.37206
H -1.81684 0.317217 3.01169
O -2.24835 0.580438 -1.8642
H 2.13363 0.799881 7.17731
H -1.63699 -0.127305 -2.18507
O -1.35925 0.164999 1.24083
H -1.98107 0.249749 0.501582
H -0.807554 0.961907 1.19036
O 1.42258 -0.432387 -0.873228
H 1.83565 -1.31885 -0.89315
H 0.693834 -0.537622 -1.52404
O -0.424195 -1.72013 7.03081
H 0.0114424 -2.23781 6.34365
H -0.981016 -2.39113 -2.39664
O 0.263076 -2.22329 1.86363
H 1.2149 -2.00904 1.88333
H -0.171039 -1.39159 1.55543
O 0.87715 0.723858 5.687
H 0.298959 0.951853 4.95319
H 0.504922 -0.112776 6.00333
O -0.157204 -2.20866 3.68085
H -0.849902 1.95966 3.73339
H -0.648356 -1.36342 3.77502

