192
water with unit cell: ABC [angstrom] 9.80 9.80 19.37
O 6.82981 0.906636 -0.722344
H 6.51615 1.26955 0.125653
H 6.81547 1.67226 -1.31253
O 3.37831 7.22127 -1.53858
H 2.79595 -1.81958 -1.38927
H 4.00044 -2.35687 -2.33082
O 6.97657 2.33355 1.76119
H 6.94837 1.54045 2.32035
H 6.30684 2.91013 2.15141
O 0.422683 6.84474 0.0077949
H 1.30535 6.72467 -0.393797
H 0.251366 5.96179 0.391
O 4.1115 -1.47708 1.15235
H 3.57028 -1.0503 0.480047
H 4.74519 -1.96674 0.609083
O -0.718202 6.83251 -1.4944
H -0.544186 -2.10435 -1.9033
H -1.63756 6.88794 -1.06478
O 1.56258 1.74878 0.837877
H 0.949767 1.01814 1.009
H 0.960728 2.46825 0.596746
O 2.21753 5.99619 -2.33111
H 2.43534 6.08064 16.4021
H 1.34767 6.44669 -2.26812
O 5.61282 5.97904 3.17186
H 5.34393 6.15971 4.07922
H 4.91538 5.39823 2.8518
O 3.63363 2.9334 -1.02571
H 3.05466 3.21788 -1.7664
H 2.98914 2.68796 -0.324929
O 6.50482 6.95802 -0.685438
H 6.06346 -2.44429 -1.42977
H 6.01649 6.12879 -0.598792
O -0.649795 3.86535 1.23759
H -1.46409 3.2834 1.2888
H -0.969372 4.80555 1.39929
O 2.93039 5.64367 1.9871
H 3.32915 6.47931 1.70876
H 2.14169 5.95081 2.44364
O -0.264202 3.84914 -0.5931
H -0.358573 4.78464 -0.834157
H -1.08202 3.44941 -0.968576
O -1.46579 6.20201 2.44122
H -1.26255 5.98584 3.3765
H -2.44762 6.21651 2.41862
O 4.29447 4.58048 -0.396537
H 3.80201 4.69427 0.446948
H 3.83158 5.2035 -0.997052
O -0.426417 -0.64793 6.19491
H -1.23087 -1.03268 5.80832
H -0.34294 -1.11713 7.04271
O 1.74749 -1.41567 3.18623
H 2.52183 -1.20367 2.62775
H 0.963787 -1.16856 2.64865
O 6.30997 3.11762 5.40644
H 5.56103 2.97054 4.80829
H 7.00307 2.54957 5.05176
O -1.118 -0.895013 2.1264
H -1.05681 -1.88295 1.94743
H -2.1262 -0.697686 2.2009
O 2.789 3.77014 7.09486
H 3.0103 3.32582 6.26085
H 2.12919 3.17092 7.48038
O -0.674276 -0.178136 0.471901
H -1.56541 0.136968 0.126262
H -0.478528 -0.994629 -0.0401112
O 2.85192 0.328496 8.86552
H 2.80423 0.148238 7.91959
H 1.94654 0.588619 9.08905
O 1.78694 -0.0288627 4.45848
H 1.30996 -0.45233 5.2068
H 1.11357 0.599168 4.11123
O -1.26063 5.29259 5.21282
H -0.816814 5.34144 6.06548
H -2.00955 4.69721 5.36672
O 4.22199 3.13115 2.82759
H 3.57815 3.83851 2.59488
H 4.04445 2.4463 2.14972
O 6.22016 -0.401657 2.91011
H 6.27922 -0.888359 3.75953
H 5.47307 -0.825829 2.42858
O -1.1373 1.49248 4.22239
H -0.759348 0.842005 4.85052
H -1.07627 1.03774 3.35285
O 4.2016 6.33345 6.04617
H 3.98552 5.40366 6.20071
H 3.32991 6.73634 6.08767
O 0.248105 2.7734 4.10157
H -0.204565 3.56831 4.45382
H 0.262921 2.94833 3.14102
O 1.09905 6.28318 7.04177
H 1.01246 6.37293 6.08443
H 1.63238 5.49134 7.16005
O 3.43453 2.3718 4.35762
H 3.35538 1.42537 4.11209
H 2.5014 2.66154 4.25832
O 0.726183 -2.43656 14.4654
H 1.43567 -1.98612 13.9908
H -0.0134818 -2.38886 13.8406
O 5.26525 3.51366 8.07755
H 4.26796 3.53236 7.86672
H 5.70959 3.19844 7.24133
O -1.45535 -2.36782 12.3323
H -1.79541 6.64079 12.6889
H -1.74936 -2.41805 11.4126
O 2.40716 7.30353 11.5883
H 1.85797 6.50823 11.4012
H 1.75193 -1.81986 11.6065
O 5.50609 4.52118 11.08
H 4.56441 4.61282 11.2727
H 5.50755 3.89657 10.3352
O 3.21729 -2.22149 9.91877
H 2.92328 -1.28749 9.71009
H 2.69302 7.05054 9.31201
O 0.836352 4.65804 11.162
H -0.0438661 4.38921 11.4871
H 0.989311 4.05675 10.4179
O 5.39201 2.0217 9.20594
H 5.9024 1.37995 8.65477
H 4.47272 1.65539 9.16833
O -0.650626 -2.12646 8.84806
H -1.54144 7.33082 8.90296
H -0.131203 7.07573 8.32271
O 6.39793 6.4054 8.08965
H 5.53914 6.65599 7.68835
H 6.28288 5.44488 8.2144
O 6.76258 -1.9902 5.4045
H 5.93391 -2.39189 5.70915
H 7.35626 7.09195 5.3264
O -0.0621597 0.562954 9.59242
H -0.272098 -0.363511 9.29657
H -0.789122 0.783948 10.2184
O 6.50014 -0.257474 7.8628
H 6.51732 -1.0758 8.3767
H 6.48803 -0.588684 6.95725
O -0.544111 1.561 8.08213
H -1.52002 1.58817 8.16801
H -0.413085 0.907944 7.35354
O 4.80593 7.36027 13.488
H 4.128 -2.43179 12.8004
H 5.39568 -1.74699 13.2562
O 6.25617 7.05891 9.85288
H 6.1697 6.21532 10.3596
H 5.3361 -2.4319 9.86524
O -0.0173879 -0.764263 16.7204
H 0.144012 -1.323 15.927
H -0.716486 -0.138719 16.4553
O -2.26844 1.22284 11.642
H -2.03556 2.08138 12.1737
H 6.7067 1.39693 11.214
O 6.72655 3.60843 -1.9369
H 6.2748 3.65868 16.8881
H 5.99075 3.65356 -1.3075
O 2.53833 3.83304 13.0764
H 1.85415 4.2156 12.4194
H 2.07222 3.13661 13.5915
O 2.28639 -0.178617 -1.14337
H 2.17263 0.56934 -0.517914
H 1.43999 -0.230832 -1.62906
O 2.68479 5.22262 14.3551
H 1.92555 5.80612 14.1319
H 3.46497 5.72471 14.0318
O -1.69168 3.68778 12.5068
H -1.79524 3.87576 13.462
H 7.34707 4.0858 12.1255
O 7.09973 0.0260719 12.9944
H -2.41715 0.499843 13.8208
H -2.10233 -0.727962 12.8259
O -1.90357 1.18061 15.3924
H -1.75695 2.13965 15.484
H 7.19578 1.01611 15.9981
O 6.02828 4.735 13.9962
H 5.58247 5.61083 14.0873
H 5.68605 4.40139 13.1368
O -1.0236 4.15906 15.6256
H -1.62572 4.17912 16.3872
H -0.854663 5.09211 15.4502
O 1.4564 2.98152 16.0247
H 0.556238 3.40286 16.1563
H 1.94641 3.6409 15.492
O 5.16883 -1.72363 16.401
H 5.02478 -2.02427 15.4786
H 4.90302 -0.778384 16.3766
O 1.05323 1.67564 14.7211
H 0.0948766 1.79842 14.6235
H 1.09368 0.85348 15.2556
O 3.74477 0.793978 16.1306
H 3.42945 0.664221 17.0343
H 3.08872 1.3937 15.7564
O 5.08874 3.66455 15.2302
H 4.89645 2.86417 14.697
H 4.22088 4.10513 15.2529
